[Format]      =  4.0
[Frequency]   =  0
[Precision]   =  1e-008
[MinAngle]    =  20
[DoSmartMesh] =  1
[Depth]       =  90
[LengthUnits] =  millimeters
[ProblemType] =  planar
[Coordinates] =  cartesian
[ACSolver]    =  0
[PrevType]    =  0
[PrevSoln]    =  ""
[Comment]     =  "Add comments here."
[PointProps]   = 0
[BdryProps]   = 5
  <BeginBdry>
    <BdryName> = "side"
    <BdryType> = 5
    <A_0> = 0
    <A_1> = 0
    <A_2> = 0
    <Phi> = 0
    <c0> = 0
    <c0i> = 0
    <c1> = 0
    <c1i> = 0
    <Mu_ssd> = 0
    <Sigma_ssd> = 0
    <innerangle> = 0
    <outerangle> = 0
  <EndBdry>
  <BeginBdry>
    <BdryName> = "Outer_boundary"
    <BdryType> = 0
    <A_0> = 0
    <A_1> = 0
    <A_2> = 0
    <Phi> = 0
    <c0> = 0
    <c0i> = 0
    <c1> = 0
    <c1i> = 0
    <Mu_ssd> = 0
    <Sigma_ssd> = 0
    <innerangle> = 0
    <outerangle> = 0
  <EndBdry>
  <BeginBdry>
    <BdryName> = "side1"
    <BdryType> = 5
    <A_0> = 0
    <A_1> = 0
    <A_2> = 0
    <Phi> = 0
    <c0> = 0
    <c0i> = 0
    <c1> = 0
    <c1i> = 0
    <Mu_ssd> = 0
    <Sigma_ssd> = 0
    <innerangle> = 0
    <outerangle> = 0
  <EndBdry>
  <BeginBdry>
    <BdryName> = "side2"
    <BdryType> = 5
    <A_0> = 0
    <A_1> = 0
    <A_2> = 0
    <Phi> = 0
    <c0> = 0
    <c0i> = 0
    <c1> = 0
    <c1i> = 0
    <Mu_ssd> = 0
    <Sigma_ssd> = 0
    <innerangle> = 0
    <outerangle> = 0
  <EndBdry>
  <BeginBdry>
    <BdryName> = "side3"
    <BdryType> = 5
    <A_0> = 0
    <A_1> = 0
    <A_2> = 0
    <Phi> = 0
    <c0> = 0
    <c0i> = 0
    <c1> = 0
    <c1i> = 0
    <Mu_ssd> = 0
    <Sigma_ssd> = 0
    <innerangle> = 0
    <outerangle> = 0
  <EndBdry>
[BlockProps]  = 5
  <BeginBlock>
    <BlockName> = "M350_50A"
    <Mu_x> = 1
    <Mu_y> = 1
    <H_c> = 0
    <H_cAngle> = 0
    <J_re> = 0
    <J_im> = 0
    <Sigma> = 0
    <d_lam> = 0.5
    <Phi_h> = 0
    <Phi_hx> = 0
    <Phi_hy> = 0
    <LamType> = 0
    <LamFill> = 0.94999999999999996
    <NStrands> = 0
    <WireD> = 0
    <BHPoints> = 81
      0	0
      0.025000000000000001	9.0356799999999993
      0.050000000000000003	17.685400000000001
      0.074999999999999997	25.563300000000002
      0.10000000000000001	32.283299999999997
      0.125	37.578600000000002
      0.14999999999999999	41.658299999999997
      0.17499999999999999	44.850499999999997
      0.20000000000000001	47.4833
      0.22500000000000001	49.837499999999999
      0.25	52.004199999999997
      0.27500000000000002	54.027099999999997
      0.29999999999999999	55.950000000000003
      0.32500000000000001	57.811500000000002
      0.34999999999999998	59.629199999999997
      0.375	61.415599999999998
      0.40000000000000002	63.183300000000003
      0.42499999999999999	64.943799999999996
      0.45000000000000001	66.7042
      0.47499999999999998	68.470799999999997
      0.5	70.25
      0.52500000000000002	72.048199999999994
      0.55000000000000004	73.872900000000001
      0.57499999999999996	75.731999999999999
      0.59999999999999998	77.633300000000006
      0.625	79.584100000000007
      0.65000000000000002	81.589600000000004
      0.67500000000000004	83.654399999999995
      0.69999999999999996	85.783299999999997
      0.72499999999999998	87.982600000000005
      0.75	90.264600000000002
      0.77500000000000002	92.643500000000003
      0.80000000000000004	95.133300000000006
      0.82499999999999996	97.753100000000003
      0.84999999999999998	100.542
      0.875	103.54300000000001
      0.90000000000000002	106.8
      0.92500000000000004	110.358
      0.94999999999999996	114.267
      0.97499999999999998	118.575
      1	123.333
      1.0249999999999999	128.602
      1.05	134.47900000000001
      1.075	141.07599999999999
      1.1000000000000001	148.5
      1.125	156.90899999999999
      1.1499999999999999	166.64599999999999
      1.175	178.102
      1.2	191.667
      1.2250000000000001	207.922
      1.25	228.208
      1.2749999999999999	254.05699999999999
      1.3	287
      1.325	329.25999999999999
      1.3500000000000001	385.83300000000003
      1.375	462.40600000000001
      1.3999999999999999	564.66700000000003
      1.425	698.92700000000002
      1.45	874
      1.4750000000000001	1099.3199999999999
      1.5	1384.3299999999999
      1.5249999999999999	1737.49
      1.55	2163.3800000000001
      1.575	2665.5700000000002
      1.6000000000000001	3247.6700000000001
      1.625	3912.7600000000002
      1.6499999999999999	4661.9399999999996
      1.675	5495.7700000000004
      1.7	6414.8299999999999
      1.7247399999999999	7407.0200000000004
      1.74794	8409.4799999999996
      1.76806	9346.6499999999996
      1.78356	10143
      1.7934600000000001	10794.799999999999
      1.7991200000000001	11585.9
      1.80246	12871.700000000001
      1.8053900000000001	15008
      1.80945	18240.799999999999
      1.8146500000000001	22378
      1.8206100000000001	27118.299999999999
      1.82694	32160
  <EndBlock>
  <BeginBlock>
    <BlockName> = "Copper"
    <Mu_x> = 1
    <Mu_y> = 1
    <H_c> = 0
    <H_cAngle> = 0
    <J_re> = 0
    <J_im> = 0
    <Sigma> = 58
    <d_lam> = 0
    <Phi_h> = 0
    <Phi_hx> = 0
    <Phi_hy> = 0
    <LamType> = 0
    <LamFill> = 1
    <NStrands> = 0
    <WireD> = 0
    <BHPoints> = 0
  <EndBlock>
  <BeginBlock>
    <BlockName> = "N35"
    <Mu_x> = 1.05
    <Mu_y> = 1.05
    <H_c> = 905659
    <H_cAngle> = 0
    <J_re> = 0
    <J_im> = 0
    <Sigma> = 0.66700000000000004
    <d_lam> = 0
    <Phi_h> = 0
    <Phi_hx> = 0
    <Phi_hy> = 0
    <LamType> = 0
    <LamFill> = 1
    <NStrands> = 0
    <WireD> = 0
    <BHPoints> = 0
  <EndBlock>
  <BeginBlock>
    <BlockName> = "Air"
    <Mu_x> = 1
    <Mu_y> = 1
    <H_c> = 0
    <H_cAngle> = 0
    <J_re> = 0
    <J_im> = 0
    <Sigma> = 0
    <d_lam> = 0
    <Phi_h> = 0
    <Phi_hx> = 0
    <Phi_hy> = 0
    <LamType> = 0
    <LamFill> = 1
    <NStrands> = 0
    <WireD> = 0
    <BHPoints> = 0
  <EndBlock>
  <BeginBlock>
    <BlockName> = "304 Stainless Steel"
    <Mu_x> = 1
    <Mu_y> = 1
    <H_c> = 0
    <H_cAngle> = 0
    <J_re> = 0
    <J_im> = 0
    <Sigma> = 1.45
    <d_lam> = 0
    <Phi_h> = 0
    <Phi_hx> = 0
    <Phi_hy> = 0
    <LamType> = 0
    <LamFill> = 1
    <NStrands> = 0
    <WireD> = 0
    <BHPoints> = 0
  <EndBlock>
[CircuitProps]  = 3
  <BeginCircuit>
    <CircuitName> = "PhaseA"
    <TotalAmps_re> = -3.7622200000000001
    <TotalAmps_im> = 0
    <CircuitType> = 1
  <EndCircuit>
  <BeginCircuit>
    <CircuitName> = "PhaseB"
    <TotalAmps_re> = 10.832890000000001
    <TotalAmps_im> = 0
    <CircuitType> = 1
  <EndCircuit>
  <BeginCircuit>
    <CircuitName> = "PhaseC"
    <TotalAmps_re> = -7.0706600000000002
    <TotalAmps_im> = 0
    <CircuitType> = 1
  <EndCircuit>
[NumPoints] = 110
0	70	0	0
0	40	0	0
3.7302080560736961	39.82568954655278	0	0
3.860734248293745	40.817134407926567	0	0
2.4845142196200749	41.855651828424392	0	0
2.4922874781028921	59.152615133480353	0	0
12.902458522527899	57.782090115169822	0	0
8.4331833878629379	41.072494675104089	0	0
6.8350688324151756	40.425555831266408	0	0
6.7045426401951271	39.434110969892622	0	0
14.293434670146439	38.427092728190452	0	0
13.23289628888984	39.786415479372693	0	0
17.717188205800738	56.491987184762714	0	0
27.417923297169239	52.473811144929272	0	0
18.77617348395756	37.490314885182151	0	0
17.065073267680301	37.279042431095178	0	0
16.68238983531521	36.355162898583913	0	0
23.143299711237571	32.62495484251022	0	0
23.75206114024629	33.418308182801447	0	0
23.07947834446685	35.005800665562077	0	0
31.512650865823218	49.597336255147624	0	0
31.734691836311129	49.981523666826391	0	0
40.064901909369112	43.589528662234827	0	0
27.839598386214259	31.35323209150976	0	0
26.13212116111999	31.592023895775291	0	0
25.523359732111281	30.798670555484069	0	0
30.798670555484069	25.52335973211127	0	0
31.592023895775291	26.13212116111999	0	0
31.35323209150976	27.839598386214249	0	0
43.589528662234827	40.064901909369091	0	0
49.981523666826398	31.734691836311129	0	0
35.005800665562091	23.079478344466839	0	0
33.418308182801447	23.75206114024628	0	0
32.62495484251022	23.143299711237571	0	0
36.355162898583913	16.68238983531521	0	0
37.279042431095178	17.06507326768029	0	0
37.490314885182151	18.77617348395755	0	0
52.473811144929272	27.417923297169231	0	0
56.491987184762714	17.717188205800731	0	0
39.786415479372693	13.23289628888983	0	0
38.427092728190459	14.29343467014643	0	0
37.50321319567918	13.910751237781341	0	0
39.434110969892622	6.7045426401951183	0	0
40.425555831266422	6.8350688324151676	0	0
41.072494675104089	8.4331833878629272	0	0
57.782090115169822	12.90245852252789	0	0
59.152615133480367	2.492287478102877	0	0
41.855651828424399	2.4845142196200651	0	0
40.817134407926581	3.860734248293737	0	0
39.82568954655278	3.7302080560736872	0	0
40	0	0	0
70	0	0	0
42.65541034542187	3.1949800222372038	0	0
49.456715426392357	4.0903888230008132	0	0
48.830189243048437	8.8493276568653467	0	0
42.028884162077958	7.9539188561017369	0	0
40.375040805123817	14.126146292014811	0	0
46.712848184514257	16.751352064266609	0	0
44.875966358493933	21.185977081121539	0	0
38.5381589791035	18.560771308869739	0	0
35.343178956866304	24.09463903655212	0	0
40.785577535493111	28.270738345270811	0	0
37.863520527648909	32.078837178781832	0	0
32.421121949022087	27.902737870063142	0	0
27.902737870063142	32.421121949022087	0	0
32.078837178781839	37.863520527648909	0	0
28.270738345270821	40.785577535493111	0	0
24.094639036552131	35.343178956866304	0	0
18.56077130886975	38.538158979103493	0	0
21.18597708112155	44.875966358493919	0	0
16.751352064266619	46.71284818451425	0	0
14.12614629201482	40.375040805123831	0	0
7.953918856101744	42.028884162077951	0	0
8.8493276568653574	48.830189243048437	0	0
4.0903888230008247	49.456715426392357	0	0
3.194980022237214	42.65541034542187	0	0
51.157041696634977	4.3142410231917117	0	0
57.958346777605463	5.2096498239553197	0	0
57.331820594261551	9.9685886578198577	0	0
50.530515513291057	9.0731798570562461	0	0
48.297300029361857	17.407653507329549	0	0
54.63510740875229	20.032859279581341	0	0
52.798225582731959	24.46748429643629	0	0
46.460418203341533	21.84227852418449	0	0
42.146177180149813	29.31476317245048	0	0
47.588575758776628	33.49086248116916	0	0
44.666518750932433	37.298961314680191	0	0
39.224120172305618	33.122862005961487	0	0
33.122862005961508	39.224120172305597	0	0
37.298961314680191	44.666518750932418	0	0
33.490862481169181	47.588575758776628	0	0
29.31476317245049	42.146177180149813	0	0
21.842278524184501	46.460418203341519	0	0
24.4674842964363	52.798225582731952	0	0
20.032859279581359	54.635107408752283	0	0
17.40765350732957	48.297300029361857	0	0
9.0731798570562621	50.53051551329105	0	0
9.9685886578198772	57.331820594261544	0	0
5.209649823955341	57.958346777605463	0	0
4.3142410231917294	51.157041696634977	0	0
0	0	0	0
0	16	0	0
16	0	0	0
0	39	0	0
39	0	0	0
13.91075123778135	37.503213195679173	0	0
28.721260920304061	7.5080574847076376	0	0
30.8425812638637	9.6293778282672786	0	0
9.6293778282672786	30.8425812638637	0	0
7.5080574847076376	28.721260920304061	0	0
[NumSegments] = 101
0	1	-1	5	0	0
2	3	-1	0	0	0
3	4	-1	0	0	0
4	5	-1	0	0	0
5	6	-1	0	0	0
6	7	-1	0	0	0
7	8	-1	0	0	0
8	9	-1	0	0	0
10	11	-1	0	0	0
11	12	-1	0	0	0
12	13	-1	0	0	0
13	14	-1	0	0	0
14	15	-1	0	0	0
15	16	-1	0	0	0
17	18	-1	0	0	0
18	19	-1	0	0	0
19	20	-1	0	0	0
21	22	-1	0	0	0
22	23	-1	0	0	0
23	24	-1	0	0	0
24	25	-1	0	0	0
26	27	-1	0	0	0
27	28	-1	0	0	0
28	29	-1	0	0	0
29	30	-1	0	0	0
30	31	-1	0	0	0
31	32	-1	0	0	0
32	33	-1	0	0	0
34	35	-1	0	0	0
35	36	-1	0	0	0
36	37	-1	0	0	0
37	38	-1	0	0	0
38	39	-1	0	0	0
39	40	-1	0	0	0
40	41	-1	0	0	0
42	43	-1	0	0	0
43	44	-1	0	0	0
44	45	-1	0	0	0
45	46	-1	0	0	0
46	47	-1	0	0	0
47	48	-1	0	0	0
48	49	-1	0	0	0
50	51	-1	5	0	0
52	53	-1	0	0	0
53	54	-1	0	0	0
54	55	-1	0	0	0
55	52	-1	0	0	0
56	57	-1	0	0	0
57	58	-1	0	0	0
58	59	-1	0	0	0
59	56	-1	0	0	0
60	61	-1	0	0	0
61	62	-1	0	0	0
62	63	-1	0	0	0
63	60	-1	0	0	0
64	65	-1	0	0	0
65	66	-1	0	0	0
66	67	-1	0	0	0
67	64	-1	0	0	0
68	69	-1	0	0	0
69	70	-1	0	0	0
70	71	-1	0	0	0
71	68	-1	0	0	0
72	73	-1	0	0	0
73	74	-1	0	0	0
74	75	-1	0	0	0
75	72	-1	0	0	0
76	77	-1	0	0	0
77	78	-1	0	0	0
78	79	-1	0	0	0
79	76	-1	0	0	0
80	81	-1	0	0	0
81	82	-1	0	0	0
82	83	-1	0	0	0
83	80	-1	0	0	0
84	85	-1	0	0	0
85	86	-1	0	0	0
86	87	-1	0	0	0
87	84	-1	0	0	0
88	89	-1	0	0	0
89	90	-1	0	0	0
90	91	-1	0	0	0
91	88	-1	0	0	0
92	93	-1	0	0	0
93	94	-1	0	0	0
94	95	-1	0	0	0
95	92	-1	0	0	0
96	97	-1	0	0	0
97	98	-1	0	0	0
98	99	-1	0	0	0
99	96	-1	0	0	0
100	101	-1	3	0	0
100	102	-1	3	0	0
1	103	-1	4	0	0
104	50	-1	4	0	0
20	21	-1	0	0	0
10	105	-1	0	0	0
106	109	-1	0	0	0
106	107	-1	0	0	0
108	107	-1	0	0	0
108	109	-1	0	0	0
[NumArcSegments] = 14
51	0	90.000000000000014	5	2	0	0	5
2	1	5.3509043731352017	5	0	0	0	5
105	9	10.701808746272071	5	0	0	0	5
17	16	10.701808746271613	5	0	0	0	5
26	25	10.701808746272048	5	0	0	0	5
34	33	10.701808746272048	5	0	0	0	5
42	41	10.701808746272071	5	0	0	0	5
50	49	5.350904373135223	5	0	0	0	5
9	2	4.2999999999999998	1	0	0	0	1
16	105	4.2999999999999998	1	0	0	0	1
25	17	4.2999999999999998	1	0	0	0	1
33	26	4.2999999999999998	1	0	0	0	1
41	34	4.2999999999999998	1	0	0	0	1
49	42	4.2999999999999998	1	0	0	0	1
[NumHoles] = 0
[NumBlockLabels] = 22
7.0999999999999996	54.200000000000003	2	8	1	0	0	29	0
6.0999999999999996	45	2	8	2	0	0	-29	0
21	50.700000000000003	2	8	2	0	0	-29	0
17.800000000000001	42.399999999999999	2	8	2	0	0	-29	0
33.5	43.399999999999999	2	8	2	0	0	-29	0
28.100000000000001	36.299999999999997	2	8	3	0	0	29	0
36.399999999999999	27.800000000000001	2	8	3	0	0	29	0
43.299999999999997	33.299999999999997	2	8	3	0	0	29	0
50.5	20.800000000000001	2	8	3	0	0	29	0
42.799999999999997	17.600000000000001	2	8	1	0	0	-29	0
45.5	6.0999999999999996	2	8	1	0	0	-29	0
53.899999999999999	6.9000000000000004	2	8	1	0	0	-29	0
44.600000000000001	45.200000000000003	1	10	0	0	0	1	0
24.100000000000001	31.300000000000001	4	1	0	0	0	1	0
18.100000000000001	19.800000000000001	3	5	0	45	2	1	0
6.4000000000000004	5.7000000000000002	5	10	0	0	2	1	0
40.280000000000001	5.1699999999999999	4	5	0	0	0	1	0
37.689999999999998	15.550000000000001	4	5	0	0	0	1	0
32.390000000000001	24.670000000000002	4	5	0	0	0	1	0
24.719999999999999	32.219999999999999	4	5	0	0	0	1	0
15.56	37.600000000000001	4	5	0	0	0	1	0
5.4299999999999997	40.259999999999998	4	5	0	0	0	1	0
