[Format]      =  4.0
[Frequency]   =  0
[Precision]   =  1e-008
[MinAngle]    =  2.5
[DoSmartMesh] =  1
[Depth]       =  90
[LengthUnits] =  millimeters
[ProblemType] =  planar
[Coordinates] =  cartesian
[ACSolver]    =  0
[PrevType]    =  0
[PrevSoln]    =  ""
[Comment]     =  "Add comments here."
[PointProps]   = 0
[BdryProps]   = 5
  <BeginBdry>
    <BdryName> = "side"
    <BdryType> = 5
    <A_0> = 0
    <A_1> = 0
    <A_2> = 0
    <Phi> = 0
    <c0> = 0
    <c0i> = 0
    <c1> = 0
    <c1i> = 0
    <Mu_ssd> = 0
    <Sigma_ssd> = 0
    <innerangle> = 0
    <outerangle> = 0
  <EndBdry>
  <BeginBdry>
    <BdryName> = "Outer_boundary"
    <BdryType> = 0
    <A_0> = 0
    <A_1> = 0
    <A_2> = 0
    <Phi> = 0
    <c0> = 0
    <c0i> = 0
    <c1> = 0
    <c1i> = 0
    <Mu_ssd> = 0
    <Sigma_ssd> = 0
    <innerangle> = 0
    <outerangle> = 0
  <EndBdry>
  <BeginBdry>
    <BdryName> = "side1"
    <BdryType> = 5
    <A_0> = 0
    <A_1> = 0
    <A_2> = 0
    <Phi> = 0
    <c0> = 0
    <c0i> = 0
    <c1> = 0
    <c1i> = 0
    <Mu_ssd> = 0
    <Sigma_ssd> = 0
    <innerangle> = 0
    <outerangle> = 0
  <EndBdry>
  <BeginBdry>
    <BdryName> = "side2"
    <BdryType> = 5
    <A_0> = 0
    <A_1> = 0
    <A_2> = 0
    <Phi> = 0
    <c0> = 0
    <c0i> = 0
    <c1> = 0
    <c1i> = 0
    <Mu_ssd> = 0
    <Sigma_ssd> = 0
    <innerangle> = 0
    <outerangle> = 0
  <EndBdry>
  <BeginBdry>
    <BdryName> = "side3"
    <BdryType> = 5
    <A_0> = 0
    <A_1> = 0
    <A_2> = 0
    <Phi> = 0
    <c0> = 0
    <c0i> = 0
    <c1> = 0
    <c1i> = 0
    <Mu_ssd> = 0
    <Sigma_ssd> = 0
    <innerangle> = 0
    <outerangle> = 0
  <EndBdry>
[BlockProps]  = 5
  <BeginBlock>
    <BlockName> = "M350_50A"
    <Mu_x> = 1
    <Mu_y> = 1
    <H_c> = 0
    <H_cAngle> = 0
    <J_re> = 0
    <J_im> = 0
    <Sigma> = 0
    <d_lam> = 0.5
    <Phi_h> = 0
    <Phi_hx> = 0
    <Phi_hy> = 0
    <LamType> = 0
    <LamFill> = 0.94999999999999996
    <NStrands> = 0
    <WireD> = 0
    <BHPoints> = 81
      0	0
      0.025000000000000001	9.0356799999999993
      0.050000000000000003	17.685400000000001
      0.074999999999999997	25.563300000000002
      0.10000000000000001	32.283299999999997
      0.125	37.578600000000002
      0.14999999999999999	41.658299999999997
      0.17499999999999999	44.850499999999997
      0.20000000000000001	47.4833
      0.22500000000000001	49.837499999999999
      0.25	52.004199999999997
      0.27500000000000002	54.027099999999997
      0.29999999999999999	55.950000000000003
      0.32500000000000001	57.811500000000002
      0.34999999999999998	59.629199999999997
      0.375	61.415599999999998
      0.40000000000000002	63.183300000000003
      0.42499999999999999	64.943799999999996
      0.45000000000000001	66.7042
      0.47499999999999998	68.470799999999997
      0.5	70.25
      0.52500000000000002	72.048199999999994
      0.55000000000000004	73.872900000000001
      0.57499999999999996	75.731999999999999
      0.59999999999999998	77.633300000000006
      0.625	79.584100000000007
      0.65000000000000002	81.589600000000004
      0.67500000000000004	83.654399999999995
      0.69999999999999996	85.783299999999997
      0.72499999999999998	87.982600000000005
      0.75	90.264600000000002
      0.77500000000000002	92.643500000000003
      0.80000000000000004	95.133300000000006
      0.82499999999999996	97.753100000000003
      0.84999999999999998	100.542
      0.875	103.54300000000001
      0.90000000000000002	106.8
      0.92500000000000004	110.358
      0.94999999999999996	114.267
      0.97499999999999998	118.575
      1	123.333
      1.0249999999999999	128.602
      1.05	134.47900000000001
      1.075	141.07599999999999
      1.1000000000000001	148.5
      1.125	156.90899999999999
      1.1499999999999999	166.64599999999999
      1.175	178.102
      1.2	191.667
      1.2250000000000001	207.922
      1.25	228.208
      1.2749999999999999	254.05699999999999
      1.3	287
      1.325	329.25999999999999
      1.3500000000000001	385.83300000000003
      1.375	462.40600000000001
      1.3999999999999999	564.66700000000003
      1.425	698.92700000000002
      1.45	874
      1.4750000000000001	1099.3199999999999
      1.5	1384.3299999999999
      1.5249999999999999	1737.49
      1.55	2163.3800000000001
      1.575	2665.5700000000002
      1.6000000000000001	3247.6700000000001
      1.625	3912.7600000000002
      1.6499999999999999	4661.9399999999996
      1.675	5495.7700000000004
      1.7	6414.8299999999999
      1.7247399999999999	7407.0200000000004
      1.74794	8409.4799999999996
      1.76806	9346.6499999999996
      1.78356	10143
      1.7934600000000001	10794.799999999999
      1.7991200000000001	11585.9
      1.80246	12871.700000000001
      1.8053900000000001	15008
      1.80945	18240.799999999999
      1.8146500000000001	22378
      1.8206100000000001	27118.299999999999
      1.82694	32160
  <EndBlock>
  <BeginBlock>
    <BlockName> = "Copper"
    <Mu_x> = 1
    <Mu_y> = 1
    <H_c> = 0
    <H_cAngle> = 0
    <J_re> = 0
    <J_im> = 0
    <Sigma> = 58
    <d_lam> = 0
    <Phi_h> = 0
    <Phi_hx> = 0
    <Phi_hy> = 0
    <LamType> = 0
    <LamFill> = 1
    <NStrands> = 0
    <WireD> = 0
    <BHPoints> = 0
  <EndBlock>
  <BeginBlock>
    <BlockName> = "N35"
    <Mu_x> = 1.05
    <Mu_y> = 1.05
    <H_c> = 905659
    <H_cAngle> = 0
    <J_re> = 0
    <J_im> = 0
    <Sigma> = 0.66700000000000004
    <d_lam> = 0
    <Phi_h> = 0
    <Phi_hx> = 0
    <Phi_hy> = 0
    <LamType> = 0
    <LamFill> = 1
    <NStrands> = 0
    <WireD> = 0
    <BHPoints> = 0
  <EndBlock>
  <BeginBlock>
    <BlockName> = "Air"
    <Mu_x> = 1
    <Mu_y> = 1
    <H_c> = 0
    <H_cAngle> = 0
    <J_re> = 0
    <J_im> = 0
    <Sigma> = 0
    <d_lam> = 0
    <Phi_h> = 0
    <Phi_hx> = 0
    <Phi_hy> = 0
    <LamType> = 0
    <LamFill> = 1
    <NStrands> = 0
    <WireD> = 0
    <BHPoints> = 0
  <EndBlock>
  <BeginBlock>
    <BlockName> = "304 Stainless Steel"
    <Mu_x> = 1
    <Mu_y> = 1
    <H_c> = 0
    <H_cAngle> = 0
    <J_re> = 0
    <J_im> = 0
    <Sigma> = 1.45
    <d_lam> = 0
    <Phi_h> = 0
    <Phi_hx> = 0
    <Phi_hy> = 0
    <LamType> = 0
    <LamFill> = 1
    <NStrands> = 0
    <WireD> = 0
    <BHPoints> = 0
  <EndBlock>
[CircuitProps]  = 3
  <BeginCircuit>
    <CircuitName> = "PhaseA"
    <TotalAmps_re> = -3.7622200000000001
    <TotalAmps_im> = 0
    <CircuitType> = 1
  <EndCircuit>
  <BeginCircuit>
    <CircuitName> = "PhaseB"
    <TotalAmps_re> = 10.832890000000001
    <TotalAmps_im> = 0
    <CircuitType> = 1
  <EndCircuit>
  <BeginCircuit>
    <CircuitName> = "PhaseC"
    <TotalAmps_re> = -7.0706600000000002
    <TotalAmps_im> = 0
    <CircuitType> = 1
  <EndCircuit>
[NumPoints] = 408
3.7302080560736961	39.82568954655278	0	0
3.860734248293745	40.817134407926567	0	0
2.4845142196200749	41.855651828424392	0	0
2.4922874781028921	59.152615133480353	0	0
12.902458522527899	57.782090115169822	0	0
8.4331833878629379	41.072494675104089	0	0
6.8350688324151756	40.425555831266408	0	0
6.7045426401951271	39.434110969892622	0	0
13.91075123778135	37.503213195679173	0	0
14.293434670146439	38.427092728190452	0	0
13.23289628888984	39.786415479372693	0	0
17.717188205800738	56.491987184762714	0	0
27.417923297169239	52.473811144929272	0	0
18.77617348395756	37.490314885182151	0	0
17.065073267680301	37.279042431095178	0	0
16.68238983531521	36.355162898583913	0	0
23.143299711237571	32.62495484251022	0	0
23.75206114024629	33.418308182801447	0	0
23.07947834446685	35.005800665562077	0	0
31.734691836311129	49.981523666826391	0	0
40.064901909369112	43.589528662234827	0	0
27.839598386214259	31.35323209150976	0	0
26.13212116111999	31.592023895775291	0	0
25.523359732111281	30.798670555484069	0	0
30.798670555484069	25.52335973211127	0	0
31.592023895775291	26.13212116111999	0	0
31.35323209150976	27.839598386214249	0	0
43.589528662234827	40.064901909369091	0	0
49.981523666826398	31.734691836311129	0	0
35.005800665562091	23.079478344466839	0	0
33.418308182801447	23.75206114024628	0	0
32.62495484251022	23.143299711237571	0	0
36.355162898583913	16.68238983531521	0	0
37.279042431095178	17.06507326768029	0	0
37.490314885182151	18.77617348395755	0	0
52.473811144929272	27.417923297169231	0	0
56.491987184762714	17.717188205800731	0	0
39.786415479372693	13.23289628888983	0	0
38.427092728190459	14.29343467014643	0	0
37.50321319567918	13.910751237781341	0	0
39.434110969892622	6.7045426401951183	0	0
40.425555831266422	6.8350688324151676	0	0
41.072494675104089	8.4331833878629272	0	0
57.782090115169822	12.90245852252789	0	0
59.152615133480367	2.492287478102877	0	0
41.855651828424399	2.4845142196200651	0	0
40.817134407926581	3.860734248293737	0	0
39.82568954655278	3.7302080560736872	0	0
42.65541034542187	3.1949800222372038	0	0
49.456715426392357	4.0903888230008132	0	0
48.830189243048437	8.8493276568653467	0	0
42.028884162077958	7.9539188561017369	0	0
40.375040805123817	14.126146292014811	0	0
46.712848184514257	16.751352064266609	0	0
44.875966358493933	21.185977081121539	0	0
38.5381589791035	18.560771308869739	0	0
35.343178956866304	24.09463903655212	0	0
40.785577535493111	28.270738345270811	0	0
37.863520527648909	32.078837178781832	0	0
32.421121949022087	27.902737870063142	0	0
27.902737870063142	32.421121949022087	0	0
32.078837178781839	37.863520527648909	0	0
28.270738345270821	40.785577535493111	0	0
24.094639036552131	35.343178956866304	0	0
18.56077130886975	38.538158979103493	0	0
21.18597708112155	44.875966358493919	0	0
16.751352064266619	46.71284818451425	0	0
14.12614629201482	40.375040805123831	0	0
7.953918856101744	42.028884162077951	0	0
8.8493276568653574	48.830189243048437	0	0
4.0903888230008247	49.456715426392357	0	0
3.194980022237214	42.65541034542187	0	0
51.157041696634977	4.3142410231917117	0	0
57.958346777605463	5.2096498239553197	0	0
57.331820594261551	9.9685886578198577	0	0
50.530515513291057	9.0731798570562461	0	0
48.297300029361857	17.407653507329549	0	0
54.63510740875229	20.032859279581341	0	0
52.798225582731959	24.46748429643629	0	0
46.460418203341533	21.84227852418449	0	0
42.146177180149813	29.31476317245048	0	0
47.588575758776628	33.49086248116916	0	0
44.666518750932433	37.298961314680191	0	0
39.224120172305618	33.122862005961487	0	0
33.122862005961508	39.224120172305597	0	0
37.298961314680191	44.666518750932418	0	0
33.490862481169181	47.588575758776628	0	0
29.31476317245049	42.146177180149813	0	0
21.842278524184501	46.460418203341519	0	0
24.4674842964363	52.798225582731952	0	0
20.032859279581359	54.635107408752283	0	0
17.40765350732957	48.297300029361857	0	0
9.0731798570562621	50.53051551329105	0	0
9.9685886578198772	57.331820594261544	0	0
5.209649823955341	57.958346777605463	0	0
4.3142410231917294	51.157041696634977	0	0
-39.82568954655278	3.7302080560736983	0	0
-40.817134407926567	3.8607342482937477	0	0
-41.855651828424392	2.4845142196200776	0	0
-59.152615133480353	2.4922874781028956	0	0
-57.782090115169822	12.902458522527903	0	0
-41.072494675104089	8.4331833878629396	0	0
-40.425555831266408	6.8350688324151783	0	0
-39.434110969892622	6.7045426401951298	0	0
-37.503213195679173	13.910751237781351	0	0
-38.427092728190452	14.293434670146441	0	0
-39.786415479372693	13.232896288889842	0	0
-56.491987184762714	17.717188205800742	0	0
-52.473811144929272	27.417923297169242	0	0
-37.490314885182151	18.776173483957564	0	0
-37.279042431095178	17.065073267680305	0	0
-36.355162898583913	16.682389835315213	0	0
-32.62495484251022	23.143299711237574	0	0
-33.418308182801447	23.752061140246294	0	0
-35.005800665562077	23.079478344466853	0	0
-49.981523666826391	31.734691836311132	0	0
-43.589528662234827	40.064901909369112	0	0
-31.35323209150976	27.839598386214263	0	0
-31.592023895775291	26.132121161119994	0	0
-30.798670555484069	25.523359732111285	0	0
-25.523359732111267	30.798670555484069	0	0
-26.132121161119986	31.592023895775291	0	0
-27.839598386214245	31.35323209150976	0	0
-40.064901909369091	43.589528662234827	0	0
-31.734691836311125	49.981523666826398	0	0
-23.079478344466835	35.005800665562091	0	0
-23.752061140246276	33.418308182801447	0	0
-23.143299711237567	32.62495484251022	0	0
-16.682389835315206	36.355162898583913	0	0
-17.065073267680287	37.279042431095178	0	0
-18.776173483957546	37.490314885182151	0	0
-27.417923297169228	52.473811144929272	0	0
-17.717188205800728	56.491987184762714	0	0
-13.232896288889828	39.786415479372693	0	0
-14.293434670146429	38.427092728190459	0	0
-13.910751237781339	37.50321319567918	0	0
-6.7045426401951156	39.434110969892622	0	0
-6.8350688324151649	40.425555831266422	0	0
-8.4331833878629254	41.072494675104089	0	0
-12.902458522527887	57.782090115169822	0	0
-2.4922874781028734	59.152615133480367	0	0
-2.4845142196200625	41.855651828424399	0	0
-3.8607342482937343	40.817134407926581	0	0
-3.730208056073685	39.82568954655278	0	0
-3.1949800222372011	42.65541034542187	0	0
-4.0903888230008105	49.456715426392357	0	0
-8.8493276568653432	48.830189243048437	0	0
-7.9539188561017342	42.028884162077958	0	0
-14.126146292014809	40.375040805123817	0	0
-16.751352064266605	46.712848184514257	0	0
-21.185977081121536	44.875966358493933	0	0
-18.560771308869736	38.5381589791035	0	0
-24.094639036552117	35.343178956866304	0	0
-28.270738345270807	40.785577535493111	0	0
-32.078837178781832	37.863520527648909	0	0
-27.902737870063138	32.421121949022087	0	0
-32.421121949022087	27.902737870063145	0	0
-37.863520527648909	32.078837178781839	0	0
-40.785577535493111	28.270738345270825	0	0
-35.343178956866304	24.094639036552135	0	0
-38.538158979103493	18.560771308869754	0	0
-44.875966358493919	21.185977081121553	0	0
-46.71284818451425	16.751352064266623	0	0
-40.375040805123831	14.126146292014822	0	0
-42.028884162077951	7.9539188561017466	0	0
-48.830189243048437	8.8493276568653609	0	0
-49.456715426392357	4.0903888230008274	0	0
-42.65541034542187	3.1949800222372167	0	0
-4.3142410231917081	51.157041696634977	0	0
-5.2096498239553162	57.958346777605463	0	0
-9.9685886578198541	57.331820594261551	0	0
-9.0731798570562425	50.530515513291057	0	0
-17.407653507329545	48.297300029361857	0	0
-20.032859279581338	54.63510740875229	0	0
-24.467484296436286	52.798225582731959	0	0
-21.842278524184486	46.460418203341533	0	0
-29.314763172450476	42.146177180149813	0	0
-33.49086248116916	47.588575758776628	0	0
-37.298961314680191	44.666518750932433	0	0
-33.122862005961487	39.224120172305618	0	0
-39.224120172305597	33.122862005961508	0	0
-44.666518750932418	37.298961314680191	0	0
-47.588575758776628	33.490862481169181	0	0
-42.146177180149813	29.314763172450494	0	0
-46.460418203341519	21.842278524184504	0	0
-52.798225582731952	24.467484296436304	0	0
-54.635107408752283	20.032859279581363	0	0
-48.297300029361857	17.407653507329574	0	0
-50.53051551329105	9.0731798570562656	0	0
-57.331820594261544	9.9685886578198808	0	0
-57.958346777605463	5.2096498239553446	0	0
-51.157041696634977	4.314241023191733	0	0
-3.730208056073701	-39.82568954655278	0	0
-3.8607342482937499	-40.817134407926567	0	0
-2.4845142196200802	-41.855651828424392	0	0
-2.4922874781028992	-59.152615133480353	0	0
-12.902458522527906	-57.782090115169822	0	0
-8.4331833878629432	-41.072494675104089	0	0
-6.8350688324151809	-40.425555831266408	0	0
-6.7045426401951316	-39.434110969892622	0	0
-13.910751237781355	-37.503213195679173	0	0
-14.293434670146445	-38.427092728190452	0	0
-13.232896288889846	-39.786415479372693	0	0
-17.717188205800745	-56.491987184762714	0	0
-27.417923297169246	-52.473811144929272	0	0
-18.776173483957564	-37.490314885182151	0	0
-17.065073267680305	-37.279042431095178	0	0
-16.682389835315213	-36.355162898583913	0	0
-23.143299711237574	-32.62495484251022	0	0
-23.752061140246294	-33.418308182801447	0	0
-23.079478344466853	-35.005800665562077	0	0
-31.734691836311136	-49.981523666826384	0	0
-40.064901909369119	-43.589528662234819	0	0
-27.839598386214263	-31.353232091509756	0	0
-26.132121161119994	-31.592023895775288	0	0
-25.523359732111285	-30.798670555484065	0	0
-30.798670555484073	-25.523359732111267	0	0
-31.592023895775295	-26.132121161119986	0	0
-31.353232091509764	-27.839598386214245	0	0
-43.589528662234834	-40.064901909369084	0	0
-49.981523666826405	-31.734691836311121	0	0
-35.005800665562091	-23.079478344466835	0	0
-33.418308182801447	-23.752061140246276	0	0
-32.62495484251022	-23.143299711237567	0	0
-36.355162898583913	-16.682389835315206	0	0
-37.279042431095178	-17.065073267680287	0	0
-37.490314885182151	-18.776173483957546	0	0
-52.473811144929272	-27.417923297169224	0	0
-56.491987184762714	-17.717188205800724	0	0
-39.786415479372693	-13.232896288889824	0	0
-38.427092728190459	-14.293434670146425	0	0
-37.50321319567918	-13.910751237781335	0	0
-39.434110969892622	-6.7045426401951138	0	0
-40.425555831266422	-6.8350688324151623	0	0
-41.072494675104089	-8.4331833878629219	0	0
-57.782090115169822	-12.902458522527883	0	0
-59.152615133480367	-2.4922874781028699	0	0
-41.855651828424399	-2.4845142196200598	0	0
-40.817134407926581	-3.8607342482937321	0	0
-39.82568954655278	-3.7302080560736823	0	0
-42.65541034542187	-3.1949800222371985	0	0
-49.456715426392357	-4.090388823000807	0	0
-48.830189243048437	-8.8493276568653414	0	0
-42.028884162077958	-7.9539188561017315	0	0
-40.375040805123817	-14.126146292014806	0	0
-46.712848184514257	-16.751352064266602	0	0
-44.875966358493933	-21.185977081121532	0	0
-38.5381589791035	-18.560771308869736	0	0
-35.343178956866304	-24.094639036552117	0	0
-40.785577535493111	-28.270738345270807	0	0
-37.863520527648916	-32.078837178781825	0	0
-32.421121949022087	-27.902737870063138	0	0
-27.902737870063145	-32.421121949022087	0	0
-32.078837178781846	-37.863520527648902	0	0
-28.270738345270825	-40.785577535493111	0	0
-24.094639036552135	-35.343178956866304	0	0
-18.560771308869754	-38.538158979103493	0	0
-21.185977081121557	-44.875966358493919	0	0
-16.751352064266626	-46.71284818451425	0	0
-14.126146292014825	-40.375040805123831	0	0
-7.9539188561017493	-42.028884162077951	0	0
-8.8493276568653627	-48.830189243048437	0	0
-4.090388823000831	-49.456715426392357	0	0
-3.1949800222372193	-42.65541034542187	0	0
-51.157041696634977	-4.3142410231917054	0	0
-57.958346777605463	-5.2096498239553126	0	0
-57.331820594261551	-9.9685886578198506	0	0
-50.530515513291057	-9.0731798570562407	0	0
-48.297300029361857	-17.407653507329542	0	0
-54.63510740875229	-20.032859279581334	0	0
-52.798225582731959	-24.467484296436282	0	0
-46.460418203341533	-21.842278524184483	0	0
-42.14617718014982	-29.314763172450476	0	0
-47.588575758776635	-33.490862481169152	0	0
-44.66651875093244	-37.298961314680184	0	0
-39.224120172305625	-33.12286200596148	0	0
-33.122862005961515	-39.224120172305589	0	0
-37.298961314680199	-44.666518750932411	0	0
-33.490862481169188	-47.588575758776621	0	0
-29.314763172450494	-42.146177180149806	0	0
-21.842278524184508	-46.460418203341519	0	0
-24.467484296436307	-52.798225582731952	0	0
-20.032859279581366	-54.635107408752283	0	0
-17.407653507329577	-48.297300029361857	0	0
-9.0731798570562674	-50.53051551329105	0	0
-9.9685886578198843	-57.331820594261544	0	0
-5.2096498239553481	-57.958346777605463	0	0
-4.3142410231917356	-51.157041696634977	0	0
39.82568954655278	-3.7302080560737032	0	0
40.817134407926567	-3.8607342482937526	0	0
41.855651828424392	-2.4845142196200825	0	0
59.152615133480353	-2.4922874781029027	0	0
57.782090115169822	-12.90245852252791	0	0
41.072494675104089	-8.433183387862945	0	0
40.425555831266408	-6.8350688324151827	0	0
39.434110969892622	-6.7045426401951342	0	0
37.503213195679173	-13.910751237781357	0	0
38.427092728190452	-14.293434670146446	0	0
39.786415479372693	-13.232896288889847	0	0
56.491987184762714	-17.717188205800749	0	0
52.473811144929265	-27.417923297169249	0	0
37.490314885182151	-18.776173483957567	0	0
37.279042431095178	-17.065073267680308	0	0
36.355162898583913	-16.682389835315217	0	0
32.624954842510213	-23.143299711237578	0	0
33.418308182801439	-23.752061140246298	0	0
35.00580066556207	-23.079478344466857	0	0
49.981523666826384	-31.734691836311139	0	0
43.589528662234819	-40.064901909369119	0	0
31.353232091509756	-27.839598386214266	0	0
31.592023895775288	-26.132121161119997	0	0
30.798670555484065	-25.523359732111288	0	0
25.523359732111263	-30.798670555484073	0	0
26.132121161119983	-31.592023895775295	0	0
27.839598386214242	-31.353232091509764	0	0
40.064901909369084	-43.589528662234834	0	0
31.734691836311118	-49.981523666826405	0	0
23.079478344466832	-35.005800665562099	0	0
23.752061140246273	-33.418308182801454	0	0
23.143299711237564	-32.624954842510228	0	0
16.682389835315202	-36.355162898583913	0	0
17.065073267680283	-37.279042431095178	0	0
18.776173483957542	-37.490314885182151	0	0
27.417923297169221	-52.473811144929279	0	0
17.717188205800721	-56.491987184762714	0	0
13.232896288889823	-39.786415479372693	0	0
14.293434670146423	-38.427092728190459	0	0
13.910751237781334	-37.50321319567918	0	0
6.7045426401951111	-39.434110969892622	0	0
6.8350688324151605	-40.425555831266422	0	0
8.4331833878629201	-41.072494675104089	0	0
12.90245852252788	-57.782090115169822	0	0
2.4922874781028663	-59.152615133480367	0	0
2.4845142196200576	-41.855651828424399	0	0
3.8607342482937295	-40.817134407926581	0	0
3.7302080560736801	-39.82568954655278	0	0
3.1949800222371958	-42.65541034542187	0	0
4.0903888230008043	-49.456715426392357	0	0
8.8493276568653378	-48.830189243048437	0	0
7.9539188561017289	-42.028884162077958	0	0
14.126146292014804	-40.375040805123817	0	0
16.751352064266602	-46.712848184514257	0	0
21.185977081121532	-44.87596635849394	0	0
18.560771308869732	-38.5381589791035	0	0
24.094639036552113	-35.343178956866311	0	0
28.270738345270804	-40.785577535493118	0	0
32.078837178781825	-37.863520527648916	0	0
27.902737870063135	-32.421121949022094	0	0
32.42112194902208	-27.902737870063149	0	0
37.863520527648902	-32.078837178781846	0	0
40.785577535493104	-28.270738345270829	0	0
35.343178956866296	-24.094639036552138	0	0
38.538158979103493	-18.560771308869757	0	0
44.875966358493912	-21.185977081121557	0	0
46.71284818451425	-16.751352064266626	0	0
40.375040805123831	-14.126146292014827	0	0
42.028884162077951	-7.953918856101752	0	0
48.830189243048437	-8.8493276568653663	0	0
49.456715426392357	-4.0903888230008336	0	0
42.65541034542187	-3.194980022237222	0	0
4.3142410231917019	-51.157041696634977	0	0
5.2096498239553091	-57.958346777605463	0	0
9.968588657819847	-57.331820594261551	0	0
9.0731798570562372	-50.530515513291057	0	0
17.407653507329542	-48.297300029361857	0	0
20.032859279581331	-54.635107408752297	0	0
24.467484296436279	-52.798225582731966	0	0
21.842278524184483	-46.46041820334154	0	0
29.314763172450473	-42.14617718014982	0	0
33.490862481169152	-47.588575758776635	0	0
37.298961314680184	-44.66651875093244	0	0
33.12286200596148	-39.224120172305625	0	0
39.224120172305589	-33.122862005961515	0	0
44.666518750932411	-37.298961314680199	0	0
47.588575758776621	-33.490862481169188	0	0
42.146177180149806	-29.314763172450498	0	0
46.460418203341511	-21.842278524184508	0	0
52.798225582731945	-24.467484296436311	0	0
54.635107408752276	-20.03285927958137	0	0
48.297300029361857	-17.407653507329577	0	0
50.53051551329105	-9.0731798570562709	0	0
57.331820594261544	-9.9685886578198879	0	0
57.958346777605463	-5.2096498239553517	0	0
51.157041696634977	-4.3142410231917392	0	0
28.721260920304061	7.5080574847076376	0	0
30.8425812638637	9.6293778282672786	0	0
9.6293778282672786	30.8425812638637	0	0
7.5080574847076376	28.721260920304061	0	0
-7.5080574847076358	28.721260920304061	0	0
-9.6293778282672768	30.8425812638637	0	0
-30.8425812638637	9.6293778282672804	0	0
-28.721260920304061	7.5080574847076393	0	0
-28.721260920304061	-7.508057484707634	0	0
-30.8425812638637	-9.6293778282672751	0	0
-9.6293778282672822	-30.8425812638637	0	0
-7.5080574847076411	-28.721260920304061	0	0
7.5080574847076322	-28.721260920304061	0	0
9.6293778282672733	-30.8425812638637	0	0
30.8425812638637	-9.6293778282672839	0	0
28.721260920304061	-7.5080574847076429	0	0
70	0	0	0
0	70	0	0
0	40	0	0
40	0	0	0
-70	4.2862637970157365e-015	0	0
-40	2.4492935982947065e-015	0	0
-8.572527594031473e-015	-70	0	0
-4.898587196589413e-015	-40	0	0
[NumSegments] = 376
0	1	-1	0	0	0
1	2	-1	0	0	0
2	3	-1	0	0	0
3	4	-1	0	0	0
4	5	-1	0	0	0
5	6	-1	0	0	0
6	7	-1	0	0	0
8	9	-1	0	0	0
9	10	-1	0	0	0
10	11	-1	0	0	0
11	12	-1	0	0	0
12	13	-1	0	0	0
13	14	-1	0	0	0
14	15	-1	0	0	0
16	17	-1	0	0	0
17	18	-1	0	0	0
18	19	-1	0	0	0
19	20	-1	0	0	0
20	21	-1	0	0	0
21	22	-1	0	0	0
22	23	-1	0	0	0
24	25	-1	0	0	0
25	26	-1	0	0	0
26	27	-1	0	0	0
27	28	-1	0	0	0
28	29	-1	0	0	0
29	30	-1	0	0	0
30	31	-1	0	0	0
32	33	-1	0	0	0
33	34	-1	0	0	0
34	35	-1	0	0	0
35	36	-1	0	0	0
36	37	-1	0	0	0
37	38	-1	0	0	0
38	39	-1	0	0	0
40	41	-1	0	0	0
41	42	-1	0	0	0
42	43	-1	0	0	0
43	44	-1	0	0	0
44	45	-1	0	0	0
45	46	-1	0	0	0
46	47	-1	0	0	0
48	49	-1	0	0	0
49	50	-1	0	0	0
50	51	-1	0	0	0
51	48	-1	0	0	0
52	53	-1	0	0	0
53	54	-1	0	0	0
54	55	-1	0	0	0
55	52	-1	0	0	0
56	57	-1	0	0	0
57	58	-1	0	0	0
58	59	-1	0	0	0
59	56	-1	0	0	0
60	61	-1	0	0	0
61	62	-1	0	0	0
62	63	-1	0	0	0
63	60	-1	0	0	0
64	65	-1	0	0	0
65	66	-1	0	0	0
66	67	-1	0	0	0
67	64	-1	0	0	0
68	69	-1	0	0	0
69	70	-1	0	0	0
70	71	-1	0	0	0
71	68	-1	0	0	0
72	73	-1	0	0	0
73	74	-1	0	0	0
74	75	-1	0	0	0
75	72	-1	0	0	0
76	77	-1	0	0	0
77	78	-1	0	0	0
78	79	-1	0	0	0
79	76	-1	0	0	0
80	81	-1	0	0	0
81	82	-1	0	0	0
82	83	-1	0	0	0
83	80	-1	0	0	0
84	85	-1	0	0	0
85	86	-1	0	0	0
86	87	-1	0	0	0
87	84	-1	0	0	0
88	89	-1	0	0	0
89	90	-1	0	0	0
90	91	-1	0	0	0
91	88	-1	0	0	0
92	93	-1	0	0	0
93	94	-1	0	0	0
94	95	-1	0	0	0
95	92	-1	0	0	0
96	97	-1	0	0	0
97	98	-1	0	0	0
98	99	-1	0	0	0
99	100	-1	0	0	0
100	101	-1	0	0	0
101	102	-1	0	0	0
102	103	-1	0	0	0
104	105	-1	0	0	0
105	106	-1	0	0	0
106	107	-1	0	0	0
107	108	-1	0	0	0
108	109	-1	0	0	0
109	110	-1	0	0	0
110	111	-1	0	0	0
112	113	-1	0	0	0
113	114	-1	0	0	0
114	115	-1	0	0	0
115	116	-1	0	0	0
116	117	-1	0	0	0
117	118	-1	0	0	0
118	119	-1	0	0	0
120	121	-1	0	0	0
121	122	-1	0	0	0
122	123	-1	0	0	0
123	124	-1	0	0	0
124	125	-1	0	0	0
125	126	-1	0	0	0
126	127	-1	0	0	0
128	129	-1	0	0	0
129	130	-1	0	0	0
130	131	-1	0	0	0
131	132	-1	0	0	0
132	133	-1	0	0	0
133	134	-1	0	0	0
134	135	-1	0	0	0
136	137	-1	0	0	0
137	138	-1	0	0	0
138	139	-1	0	0	0
139	140	-1	0	0	0
140	141	-1	0	0	0
141	142	-1	0	0	0
142	143	-1	0	0	0
144	145	-1	0	0	0
145	146	-1	0	0	0
146	147	-1	0	0	0
147	144	-1	0	0	0
148	149	-1	0	0	0
149	150	-1	0	0	0
150	151	-1	0	0	0
151	148	-1	0	0	0
152	153	-1	0	0	0
153	154	-1	0	0	0
154	155	-1	0	0	0
155	152	-1	0	0	0
156	157	-1	0	0	0
157	158	-1	0	0	0
158	159	-1	0	0	0
159	156	-1	0	0	0
160	161	-1	0	0	0
161	162	-1	0	0	0
162	163	-1	0	0	0
163	160	-1	0	0	0
164	165	-1	0	0	0
165	166	-1	0	0	0
166	167	-1	0	0	0
167	164	-1	0	0	0
168	169	-1	0	0	0
169	170	-1	0	0	0
170	171	-1	0	0	0
171	168	-1	0	0	0
172	173	-1	0	0	0
173	174	-1	0	0	0
174	175	-1	0	0	0
175	172	-1	0	0	0
176	177	-1	0	0	0
177	178	-1	0	0	0
178	179	-1	0	0	0
179	176	-1	0	0	0
180	181	-1	0	0	0
181	182	-1	0	0	0
182	183	-1	0	0	0
183	180	-1	0	0	0
184	185	-1	0	0	0
185	186	-1	0	0	0
186	187	-1	0	0	0
187	184	-1	0	0	0
188	189	-1	0	0	0
189	190	-1	0	0	0
190	191	-1	0	0	0
191	188	-1	0	0	0
192	193	-1	0	0	0
193	194	-1	0	0	0
194	195	-1	0	0	0
195	196	-1	0	0	0
196	197	-1	0	0	0
197	198	-1	0	0	0
198	199	-1	0	0	0
200	201	-1	0	0	0
201	202	-1	0	0	0
202	203	-1	0	0	0
203	204	-1	0	0	0
204	205	-1	0	0	0
205	206	-1	0	0	0
206	207	-1	0	0	0
208	209	-1	0	0	0
209	210	-1	0	0	0
210	211	-1	0	0	0
211	212	-1	0	0	0
212	213	-1	0	0	0
213	214	-1	0	0	0
214	215	-1	0	0	0
216	217	-1	0	0	0
217	218	-1	0	0	0
218	219	-1	0	0	0
219	220	-1	0	0	0
220	221	-1	0	0	0
221	222	-1	0	0	0
222	223	-1	0	0	0
224	225	-1	0	0	0
225	226	-1	0	0	0
226	227	-1	0	0	0
227	228	-1	0	0	0
228	229	-1	0	0	0
229	230	-1	0	0	0
230	231	-1	0	0	0
232	233	-1	0	0	0
233	234	-1	0	0	0
234	235	-1	0	0	0
235	236	-1	0	0	0
236	237	-1	0	0	0
237	238	-1	0	0	0
238	239	-1	0	0	0
240	241	-1	0	0	0
241	242	-1	0	0	0
242	243	-1	0	0	0
243	240	-1	0	0	0
244	245	-1	0	0	0
245	246	-1	0	0	0
246	247	-1	0	0	0
247	244	-1	0	0	0
248	249	-1	0	0	0
249	250	-1	0	0	0
250	251	-1	0	0	0
251	248	-1	0	0	0
252	253	-1	0	0	0
253	254	-1	0	0	0
254	255	-1	0	0	0
255	252	-1	0	0	0
256	257	-1	0	0	0
257	258	-1	0	0	0
258	259	-1	0	0	0
259	256	-1	0	0	0
260	261	-1	0	0	0
261	262	-1	0	0	0
262	263	-1	0	0	0
263	260	-1	0	0	0
264	265	-1	0	0	0
265	266	-1	0	0	0
266	267	-1	0	0	0
267	264	-1	0	0	0
268	269	-1	0	0	0
269	270	-1	0	0	0
270	271	-1	0	0	0
271	268	-1	0	0	0
272	273	-1	0	0	0
273	274	-1	0	0	0
274	275	-1	0	0	0
275	272	-1	0	0	0
276	277	-1	0	0	0
277	278	-1	0	0	0
278	279	-1	0	0	0
279	276	-1	0	0	0
280	281	-1	0	0	0
281	282	-1	0	0	0
282	283	-1	0	0	0
283	280	-1	0	0	0
284	285	-1	0	0	0
285	286	-1	0	0	0
286	287	-1	0	0	0
287	284	-1	0	0	0
288	289	-1	0	0	0
289	290	-1	0	0	0
290	291	-1	0	0	0
291	292	-1	0	0	0
292	293	-1	0	0	0
293	294	-1	0	0	0
294	295	-1	0	0	0
296	297	-1	0	0	0
297	298	-1	0	0	0
298	299	-1	0	0	0
299	300	-1	0	0	0
300	301	-1	0	0	0
301	302	-1	0	0	0
302	303	-1	0	0	0
304	305	-1	0	0	0
305	306	-1	0	0	0
306	307	-1	0	0	0
307	308	-1	0	0	0
308	309	-1	0	0	0
309	310	-1	0	0	0
310	311	-1	0	0	0
312	313	-1	0	0	0
313	314	-1	0	0	0
314	315	-1	0	0	0
315	316	-1	0	0	0
316	317	-1	0	0	0
317	318	-1	0	0	0
318	319	-1	0	0	0
320	321	-1	0	0	0
321	322	-1	0	0	0
322	323	-1	0	0	0
323	324	-1	0	0	0
324	325	-1	0	0	0
325	326	-1	0	0	0
326	327	-1	0	0	0
328	329	-1	0	0	0
329	330	-1	0	0	0
330	331	-1	0	0	0
331	332	-1	0	0	0
332	333	-1	0	0	0
333	334	-1	0	0	0
334	335	-1	0	0	0
336	337	-1	0	0	0
337	338	-1	0	0	0
338	339	-1	0	0	0
339	336	-1	0	0	0
340	341	-1	0	0	0
341	342	-1	0	0	0
342	343	-1	0	0	0
343	340	-1	0	0	0
344	345	-1	0	0	0
345	346	-1	0	0	0
346	347	-1	0	0	0
347	344	-1	0	0	0
348	349	-1	0	0	0
349	350	-1	0	0	0
350	351	-1	0	0	0
351	348	-1	0	0	0
352	353	-1	0	0	0
353	354	-1	0	0	0
354	355	-1	0	0	0
355	352	-1	0	0	0
356	357	-1	0	0	0
357	358	-1	0	0	0
358	359	-1	0	0	0
359	356	-1	0	0	0
360	361	-1	0	0	0
361	362	-1	0	0	0
362	363	-1	0	0	0
363	360	-1	0	0	0
364	365	-1	0	0	0
365	366	-1	0	0	0
366	367	-1	0	0	0
367	364	-1	0	0	0
368	369	-1	0	0	0
369	370	-1	0	0	0
370	371	-1	0	0	0
371	368	-1	0	0	0
372	373	-1	0	0	0
373	374	-1	0	0	0
374	375	-1	0	0	0
375	372	-1	0	0	0
376	377	-1	0	0	0
377	378	-1	0	0	0
378	379	-1	0	0	0
379	376	-1	0	0	0
380	381	-1	0	0	0
381	382	-1	0	0	0
382	383	-1	0	0	0
383	380	-1	0	0	0
384	387	-1	0	0	0
384	385	-1	0	0	0
386	385	-1	0	0	0
386	387	-1	0	0	0
388	391	-1	0	0	0
388	389	-1	0	0	0
390	389	-1	0	0	0
390	391	-1	0	0	0